*MODEL INPUT FILE            B     3     1     7   999     0
*FILES              
MODEL          WHAPS048
FILEX          HWOC2501.WHX C:/DSSAT48/Wheat/                                                               
FILEA          HWOC2501.WHA C:/DSSAT48/Wheat/                                                               
FILET          HWOC2501.WHT C:/DSSAT48/Wheat/                                                               
SPECIES        WHAPS048.SPE C:\DSSAT48\GENOTYPE\                                                            
ECOTYPE        WHAPS048.ECO C:\DSSAT48\GENOTYPE\                                                            
CULTIVAR       WHAPS048.CUL C:\DSSAT48\GENOTYPE\                                                            
PESTS          WHAPS048.PST C:\DSSAT48\PEST\                                                                
SOILS          SOIL.SOL     C:\DSSAT48\SOIL\                                                                
WEATHERW       LL912401.WTH                                                                                 
OUTPUT         OVERVIEW
*SIMULATION CONTROL 
                   1     1     S 2024296  1243 -99                      
                   Y     Y     N     N     N     N     N     Y     M
                   M     M     E     R     S     C     R     1     G     S     2     D     0
                   R     N     R     N     M
                   N     Y     Y     1     Y     N     N     N     N     N     Y     N     N
!AUTOMATIC MANAGEM  
                   -99     -99  -99.  -99.  -99.  -99.  -99.
                -99.  -99.  -99.   -99   -99 -99.0 *****
                -99.  -99.  -99.   -99   -99
                -99.   -99  -99.
                   -99     -99  100.    0.
*EXP.DETAILS        
  1HWOC2501 WH                                                             
*TREATMENTS         
  7 1 0 0 180 kg[N]/ha - broadcast 
*CULTIVARS          
   WH LL0001 SU Mangold      
*FIELDS             
   -99      LL912401   0.0  -99.   -99  -99. 100.0   -99 SL     -99. IB00000007-99.00 -99.0
     10.6457662582   49.2089958191   456.000               1.0  100.   1.0 -99.0   -99   -99
*INITIAL CONDITIONS 
   BS        -99  1200     0  1.00  1.00 -99.0  2000  2.00  0.00  100.   12.
      5. 0.221 0.160  1.46
     15. 0.231 0.160  1.46
     30. 0.242 0.160  1.46
     45. 0.251 0.160  1.46
     60. 0.257 0.160  1.46
     90. 0.257 0.160  1.46
    120. 0.255 0.160  1.46
    150. 0.251 0.160  1.46
    180. 0.246 0.160  1.46
    210. 0.243 0.160  1.46
*PLANTING DETAILS   
   2024297 2024303 380.0 380.0     S     R   12.  -99.   0.3    1.  -99. -99.0 -99.0 -99.0
*IRRIGATION         
   1.000    0.    0.    0. GS000 IR001   0.0
*FERTILIZERS        
   2025065 FE002 AP001    2.   80.    0.    0.    0.   20.     S
   2025092 FE002 AP001    2.   50.    0.    0.    0.   13.     S
   2025132 FE002 AP001    2.   50.    0.    0.    0.   13.     S
*RESIDUES           
*CHEMICALS          
*TILLAGE            
   2024296 TI012  17.0
   2024297 TI012  12.0
*ENVIRONMENT        
*HARVEST            
     25221 GS006     C   -99  100.    0.
*SOIL               
 IB00000007  IBSNAT      SL     -99. DEFAULT - DEEP SANDY LOAM                         
 Generic     Generic      -0.099  -0.099 Generic                                           
 -99    0.13   6.0  0.50   68.  1.00  1.00 IB001 IB001 IB001 -99  
    5.       0.052 0.176 0.359 1.000  -99.  1.61 0.700  10.0  30.0   0.0 0.070  6.50-99.00-99.00-99.00
   15.       0.052 0.176 0.359 1.000  -99.  1.61 0.700  10.0  30.0   0.0 0.070  6.50-99.00-99.00-99.00
   30.       0.052 0.176 0.359 0.638  -99.  1.61 0.660  10.0  30.0   0.0 0.070  6.50-99.00-99.00-99.00
   45.       0.073 0.192 0.360 0.472  -99.  1.61 0.580  10.0  30.0   0.0 0.060  6.50-99.00-99.00-99.00
   60.       0.073 0.192 0.360 0.350  -99.  1.61 0.580  10.0  30.0   0.0 0.060  6.50-99.00-99.00-99.00
   90.       0.128 0.232 0.361 0.223  -99.  1.61 0.430  10.0  30.0   0.0 0.040  6.50-99.00-99.00-99.00
  120.       0.143 0.243 0.359 0.122  -99.  1.62 0.260  10.0  30.0   0.0 0.030  6.50-99.00-99.00-99.00
  150.       0.138 0.243 0.360 0.067  -99.  1.62 0.120  10.0  30.0   0.0 0.010  6.50-99.00-99.00-99.00
  180.       0.138 0.244 0.361 0.037  -99.  1.62 0.040  10.0  30.0   0.0   0.0  6.50-99.00-99.00-99.00
  210.       0.138 0.244 0.361 0.020  -99.  1.62 0.010  10.0  30.0   0.0   0.0  6.50-99.00-99.00-99.00
                    
    5.-99.00 -99.0 -99.0 -99.0 -99.0 -99.0 -99.0 -99.0 -99.0 -99.0-99.00 -99.0 -99.0 -99.0 -99.0 -99.0  -99.  -99.
   15.-99.00 -99.0 -99.0 -99.0 -99.0 -99.0 -99.0 -99.0 -99.0 -99.0-99.00 -99.0 -99.0 -99.0 -99.0 -99.0  -99.  -99.
   30.-99.00 -99.0 -99.0 -99.0 -99.0 -99.0 -99.0 -99.0 -99.0 -99.0-99.00 -99.0 -99.0 -99.0 -99.0 -99.0  -99.  -99.
   45.-99.00 -99.0 -99.0 -99.0 -99.0 -99.0 -99.0 -99.0 -99.0 -99.0-99.00 -99.0 -99.0 -99.0 -99.0 -99.0  -99.  -99.
   60.-99.00 -99.0 -99.0 -99.0 -99.0 -99.0 -99.0 -99.0 -99.0 -99.0-99.00 -99.0 -99.0 -99.0 -99.0 -99.0  -99.  -99.
   90.-99.00 -99.0 -99.0 -99.0 -99.0 -99.0 -99.0 -99.0 -99.0 -99.0-99.00 -99.0 -99.0 -99.0 -99.0 -99.0  -99.  -99.
  120.-99.00 -99.0 -99.0 -99.0 -99.0 -99.0 -99.0 -99.0 -99.0 -99.0-99.00 -99.0 -99.0 -99.0 -99.0 -99.0  -99.  -99.
  150.-99.00 -99.0 -99.0 -99.0 -99.0 -99.0 -99.0 -99.0 -99.0 -99.0-99.00 -99.0 -99.0 -99.0 -99.0 -99.0  -99.  -99.
  180.-99.00 -99.0 -99.0 -99.0 -99.0 -99.0 -99.0 -99.0 -99.0 -99.0-99.00 -99.0 -99.0 -99.0 -99.0 -99.0  -99.  -99.
  210.-99.00 -99.0 -99.0 -99.0 -99.0 -99.0 -99.0 -99.0 -99.0 -99.0-99.00 -99.0 -99.0 -99.0 -99.0 -99.0  -99.  -99.
                    
    5.-99.00-99.00-99.00-99.00
   15.-99.00-99.00-99.00-99.00
   30.-99.00-99.00-99.00-99.00
   45.-99.00-99.00-99.00-99.00
   60.-99.00-99.00-99.00-99.00
   90.-99.00-99.00-99.00-99.00
  120.-99.00-99.00-99.00-99.00
  150.-99.00-99.00-99.00-99.00
  180.-99.00-99.00-99.00-99.00
  210.-99.00-99.00-99.00-99.00
*CULTIVAR           
LL0001 SU Mangold       DFAULT   4.00  4.00 400.0 700.0 110.0  25.0  2.00  1.00 300.0
