*MODEL INPUT FILE            B     3     1     7   999     0
*FILES              
MODEL          WHAPS048
FILEX          HWOC2501.WHX C:/DSSAT48/Wheat/                                                               
FILEA          HWOC2501.WHA C:/DSSAT48/Wheat/                                                               
FILET          HWOC2501.WHT C:/DSSAT48/Wheat/                                                               
SPECIES        WHAPS048.SPE C:\DSSAT48\GENOTYPE\                                                            
ECOTYPE        WHAPS048.ECO C:\DSSAT48\GENOTYPE\                                                            
CULTIVAR       WHAPS048.CUL C:\DSSAT48\GENOTYPE\                                                            
PESTS          WHAPS048.PST C:\DSSAT48\PEST\                                                                
SOILS          DE.SOL       C:\DSSAT48\SOIL\                                                                
WEATHERW       LL912401.WTH                                                                                 
OUTPUT         OVERVIEW
*SIMULATION CONTROL 
                   1     1     S 2024296  7461 -99                      
                   Y     Y     N     N     N     N     N     Y     M
                   M     M     E     R     R     C     R     1     G     S     3     D     0
                   R     N     R     N     R
                   N     Y     Y     1     Y     N     N     Y     N     N     Y     N     N
!AUTOMATIC MANAGEM  
                   -99     -99  -99.  -99.  -99.  -99.  -99.
                -99.  -99.  -99.   -99   -99 -99.0 *****
                -99.  -99.  -99.   -99   -99
                -99.   -99  -99.
                   -99     -99  100.    0.
*EXP.DETAILS        
  1HWOC2501 WH                                                             
*TREATMENTS         
  7 1 0 0 180 kg[N]/ha - broadcast 
*CULTIVARS          
   WH LL0001 SU Mangold      
*FIELDS             
   -99      LL912401   0.0  -99.   -99  -99. 100.0   -99 SL     -99. DE02114767-99.00 -99.0
     10.6457996368   49.2089996338   456.000               1.0  100.   1.0 -99.0   -99   -99
*INITIAL CONDITIONS 
   BS        -99  1200     0  1.00  1.00 -99.0  2000  2.00  0.00  100.   12.
      5. 0.211 0.150  1.33
     10. 0.211 0.150  1.33
     20. 0.211 0.150  1.33
     30. 0.211 0.150  1.33
     40. 0.224 0.150  1.33
     50. 0.230 0.150  1.33
     60. 0.230 0.150  1.33
     70. 0.246 0.150  1.33
     90. 0.278 0.150  1.33
    110. 0.287 0.150  1.33
    130. 0.292 0.150  1.33
    150. 0.292 0.150  1.33
    170. 0.292 0.150  1.33
    190. 0.293 0.150  1.33
    210. 0.293 0.150  1.33
*PLANTING DETAILS   
   2024297 2024303 380.0 380.0     S     R   12.  -99.   0.3    1.  -99. -99.0 -99.0 -99.0
*IRRIGATION         
   1.000    0.    0.    0. GS000 IR001   0.0
*FERTILIZERS        
   2025065 FE002 AP001    2.   80.    0.    0.    0.   20.     S
   2025092 FE002 AP001    2.   50.    0.    0.    0.   13.     S
   2025132 FE002 AP001    2.   50.    0.    0.    0.   13.     S
*RESIDUES           
*CHEMICALS          
*TILLAGE            
   2024296 TI012  17.0
   2024297 TI012  12.0
*ENVIRONMENT        
*HARVEST            
   2025221 GS006     C   -99  100.    0.
*SOIL               
 DE02114767  IBSNAT      SL     -99. DEFAULT - DEEP SANDY LOAM                         
 Generic     Generic      -0.099  -0.099 Generic                                           
 -99    0.13   6.0  0.50   68.  1.00  1.00 IB001 IB001 IB001 -99  
    5.       0.052 0.211 0.431 1.000  -99.  1.61 0.700  10.0  30.0   0.0 0.070  6.50-99.00-99.00-99.00
   10.       0.052 0.211 0.431 1.000  -99.  1.61 0.700  10.0  30.0   0.0 0.070  6.50-99.00-99.00-99.00
   20.       0.052 0.211 0.431 0.879  -99.  1.61 0.687  10.0  30.0   0.0 0.070  6.50-99.00-99.00-99.00
   30.       0.052 0.211 0.431 0.638  -99.  1.61 0.660  10.0  30.0   0.0 0.070  6.50-99.00-99.00-99.00
   40.       0.066 0.224 0.432 0.527  -99.  1.61 0.607  10.0  30.0   0.0 0.060  6.50-99.00-99.00-99.00
   50.       0.073 0.230 0.432 0.431  -99.  1.61 0.580  10.0  30.0   0.0 0.060  6.50-99.00-99.00-99.00
   60.       0.073 0.230 0.432 0.350  -99.  1.61 0.580  10.0  30.0   0.0 0.060  6.50-99.00-99.00-99.00
   70.       0.091 0.246 0.432 0.308  -99.  1.61 0.530  10.0  30.0   0.0 0.050  6.50-99.00-99.00-99.00
   90.       0.128 0.278 0.433 0.223  -99.  1.61 0.430  10.0  30.0   0.0 0.040  6.50-99.00-99.00-99.00
  110.       0.138 0.287 0.432 0.156  -99.  1.62 0.317  10.0  30.0   0.0 0.030  6.50-99.00-99.00-99.00
  130.       0.141 0.292 0.431 0.104  -99.  1.62 0.213  10.0  30.0   0.0 0.020  6.50-99.00-99.00-99.00
  150.       0.138 0.292 0.432 0.067  -99.  1.62 0.120  10.0  30.0   0.0 0.010  6.50-99.00-99.00-99.00
  170.       0.138 0.292 0.433 0.047  -99.  1.62 0.067  10.0  30.0   0.0   0.0  6.50-99.00-99.00-99.00
  190.       0.138 0.293 0.433 0.031  -99.  1.62 0.030  10.0  30.0   0.0   0.0  6.50-99.00-99.00-99.00
  210.       0.138 0.293 0.433 0.020  -99.  1.62 0.010  10.0  30.0   0.0   0.0  6.50-99.00-99.00-99.00
                    
    5.-99.00 -99.0 -99.0 -99.0 -99.0 -99.0 -99.0 -99.0 -99.0 -99.0-99.00 -99.0 -99.0 -99.0 -99.0 -99.0  -99.  -99.
   10.-99.00 -99.0 -99.0 -99.0 -99.0 -99.0 -99.0 -99.0 -99.0 -99.0-99.00 -99.0 -99.0 -99.0 -99.0 -99.0  -99.  -99.
   20.-99.00 -99.0 -99.0 -99.0 -99.0 -99.0 -99.0 -99.0 -99.0 -99.0-99.00 -99.0 -99.0 -99.0 -99.0 -99.0  -99.  -99.
   30.-99.00 -99.0 -99.0 -99.0 -99.0 -99.0 -99.0 -99.0 -99.0 -99.0-99.00 -99.0 -99.0 -99.0 -99.0 -99.0  -99.  -99.
   40.-99.00 -99.0 -99.0 -99.0 -99.0 -99.0 -99.0 -99.0 -99.0 -99.0-99.00 -99.0 -99.0 -99.0 -99.0 -99.0  -99.  -99.
   50.-99.00 -99.0 -99.0 -99.0 -99.0 -99.0 -99.0 -99.0 -99.0 -99.0-99.00 -99.0 -99.0 -99.0 -99.0 -99.0  -99.  -99.
   60.-99.00 -99.0 -99.0 -99.0 -99.0 -99.0 -99.0 -99.0 -99.0 -99.0-99.00 -99.0 -99.0 -99.0 -99.0 -99.0  -99.  -99.
   70.-99.00 -99.0 -99.0 -99.0 -99.0 -99.0 -99.0 -99.0 -99.0 -99.0-99.00 -99.0 -99.0 -99.0 -99.0 -99.0  -99.  -99.
   90.-99.00 -99.0 -99.0 -99.0 -99.0 -99.0 -99.0 -99.0 -99.0 -99.0-99.00 -99.0 -99.0 -99.0 -99.0 -99.0  -99.  -99.
  110.-99.00 -99.0 -99.0 -99.0 -99.0 -99.0 -99.0 -99.0 -99.0 -99.0-99.00 -99.0 -99.0 -99.0 -99.0 -99.0  -99.  -99.
  130.-99.00 -99.0 -99.0 -99.0 -99.0 -99.0 -99.0 -99.0 -99.0 -99.0-99.00 -99.0 -99.0 -99.0 -99.0 -99.0  -99.  -99.
  150.-99.00 -99.0 -99.0 -99.0 -99.0 -99.0 -99.0 -99.0 -99.0 -99.0-99.00 -99.0 -99.0 -99.0 -99.0 -99.0  -99.  -99.
  170.-99.00 -99.0 -99.0 -99.0 -99.0 -99.0 -99.0 -99.0 -99.0 -99.0-99.00 -99.0 -99.0 -99.0 -99.0 -99.0  -99.  -99.
  190.-99.00 -99.0 -99.0 -99.0 -99.0 -99.0 -99.0 -99.0 -99.0 -99.0-99.00 -99.0 -99.0 -99.0 -99.0 -99.0  -99.  -99.
  210.-99.00 -99.0 -99.0 -99.0 -99.0 -99.0 -99.0 -99.0 -99.0 -99.0-99.00 -99.0 -99.0 -99.0 -99.0 -99.0  -99.  -99.
                    
    5.-99.00-99.00-99.00-99.00
   10.-99.00-99.00-99.00-99.00
   20.-99.00-99.00-99.00-99.00
   30.-99.00-99.00-99.00-99.00
   40.-99.00-99.00-99.00-99.00
   50.-99.00-99.00-99.00-99.00
   60.-99.00-99.00-99.00-99.00
   70.-99.00-99.00-99.00-99.00
   90.-99.00-99.00-99.00-99.00
  110.-99.00-99.00-99.00-99.00
  130.-99.00-99.00-99.00-99.00
  150.-99.00-99.00-99.00-99.00
  170.-99.00-99.00-99.00-99.00
  190.-99.00-99.00-99.00-99.00
  210.-99.00-99.00-99.00-99.00
*CULTIVAR           
LL0001 SU Mangold       IB0001   4.00  2.50 400.0 650.0 120.0  24.0  1.90  3.00 280.0
