*SOILS: DE02114767 Weidenbach,Bayern
! Dataset processed on 2025-12-15 with csmtools.

*DE02114767  DEU         Loam    210 -99
@SITE        COUNTRY          LAT     LONG SCS FAMILY
 Weidenbach,BDE            49.208   10.625 HC_GEN0011
@ SCOM  SALB  SLU1  SLDR  SLRO  SLNF  SLPF  SMHB  SMPX  SMKE
    BK  0.10  6.00  0.50  75.0  1.00  1.00 SA001 SA001 SA001
@  SLB  SLMH  SLLL  SDUL  SSAT  SRGF  SSKS  SBDM  SLOC  SLCL  SLSI  SLCF  SLNI  SLHW  SLHB  SCEC  SADC
     5     A 0.100 0.221 0.389 1.000 1.440  1.32 3.650  16.4  37.6   -99  0.12  6.21   -99 17.00   -99
    10   -99 0.104 0.226 0.390 0.925 1.340  1.33 3.365  17.1  37.2   -99  0.10  6.25   -99 15.95   -99
    20   -99 0.114 0.236 0.392 0.800 1.160  1.35 2.840  18.7  36.5   -99  0.08  6.31   -99 14.77   -99
    30    AB 0.123 0.245 0.395 0.700 1.000  1.37 2.360  20.3  35.7   -99  0.07  6.38   -99 14.50   -99
    40   -99 0.127 0.249 0.396 0.633 0.940  1.39 2.077  21.0  35.3   -99  0.07  6.42   -99 14.70   -99
    50   -99 0.132 0.254 0.398 0.567 0.880  1.40 1.793  21.8  34.9   -99  0.06  6.45   -99 14.90   -99
    60    BA 0.136 0.258 0.399 0.500 0.820  1.42 1.510  22.5  34.5   -99  0.06  6.49   -99 15.10   -99
    70   -99 0.136 0.258 0.399 0.470 0.825  1.44 1.353  22.5  34.3   -99  0.06  6.53   -99 15.12   -99
    90   -99 0.136 0.257 0.398 0.410 0.835  1.47 1.038  22.5  34.0   -99  0.05  6.59   -99 15.18   -99
   110   -99 0.135 0.256 0.398 0.347 0.858  1.49 0.842  22.3  33.7   -99  0.05  6.65   -99 15.20   -99
   130   -99 0.133 0.253 0.397 0.281 0.894  1.50 0.766  21.9  33.7   -99  0.05  6.68   -99 15.20   -99
   150   -99 0.130 0.250 0.396 0.215 0.930  1.50 0.690  21.6  33.6   -99  0.05  6.72   -99 15.20   -99
   170   -99 0.128 0.247 0.395 0.149 0.966  1.51 0.614  21.2  33.5   -99  0.05  6.76   -99 15.20   -99
   190   -99 0.126 0.244 0.394 0.083 1.002  1.52 0.538  20.8  33.5   -99  0.05  6.79   -99 15.20   -99
   210   -99 0.125 0.243 0.394 0.050 1.020  1.53 0.500  20.6  33.4   -99  0.05  6.81   -99 15.20   -99
